/*--------------------------------*- C++ -*----------------------------------*\
| =========                 |                                                 |
| \\      /  F ield         | OpenFOAM: The Open Source CFD Toolbox           |
|  \\    /   O peration     | Version:  2.2.0                                 |
|   \\  /    A nd           | Web:      http://www.OpenFOAM.org               |
|    \\/     M anipulation  |                                                 |
\*---------------------------------------------------------------------------*/
FoamFile
{
    version     2.0;
    format      ascii;
    class       dictionary;
    object      blockMeshDict;
}
// * * * * * * * * * * * * * * * * * * * * * * * * * * * * * * * * * * * * * //

convertToMeters 1;

vertices
(
    (0 0 0)         //0
    (9 0 0)      //1
    (9 0.02 0)  //2
    (0 0.02 0)     //3
    (0 0 4)      //4
    (9 0 4)   //5
    (9 0.02 4) //6
    (0 0.02 4)    //7
    (0 0.3035 0)       //8  
    (9 0.3035 0)    //9
    (0 0.3035 4)    //10
    (9 0.3035 4) //11
    (0 1 0)       //12  
    (9 1 0)    //13
    (0 1 4)    //14
    (9 1 4) //15
    (0 1.6965 0)       //16  
    (9 1.6965 0)    //17
    (0 1.6965 4)    //18
    (9 1.6965 4) //19
    (0 1.98 0)       //20  
    (9 1.98 0)    //21
    (0 1.98 4)    //22
    (9 1.98 4) //23
    (0 2 0)       //24  
    (9 2 0)    //25
    (0 2 4)    //26
    (9 2 4) //27
);

blocks
(
    hex (0 1 2 3 4 5 6 7) (90 10 100) simpleGrading (1 1 1)
    hex (3 2 9 8 7 6 11 10) (90 27 100) simpleGrading (1 15.9882 1)
    hex (8 9 13 12 10 11 15 14) (90 21 100) simpleGrading (1 1 1)
    hex (12 13 17 16 14 15 19 18) (90 21 100) simpleGrading (1 1 1)
    hex (16 17 21 20 18 19 23 22) (90 27 100) simpleGrading (1 0.0625461277692 1)
    hex (20 21 25 24 22 23 27 26) (90 10 100) simpleGrading (1 1 1)

);

boundary         
(
    inlet
    {
        type            cyclic;
        neighbourPatch  outlet;
        faces           ((7 3 0 4) (10 8 3 7) (14 12 8 10) (18 16 12 14) (22 20 16 18) (26 24 20 22));
    }
    outlet
    {
        type            cyclic;
        neighbourPatch  inlet;
        faces           ((2 6 5 1) (9 11 6 2) (13 15 11 9) (17 19 15 13) (21 23 19 17) (25 27 23 21));
    }
    bottomWall 
    {
        type            wall;
        faces           ((4 0 1 5));
    }
    topWall
    {
        type            wall;
        faces           ((24 26 27 25) );
    }
    left
    {
        type            cyclic;
        neighbourPatch  right;
        faces           ((6 7 4 5) (11 10 7 6) (15 14 10 11) (19 18 14 15) (23 22 18 19) (27 26 22 23));
    }
    right
    {
        type            cyclic;
        neighbourPatch  left;
        faces           ((3 2 1 0) (8 9 2 3) (12 13 9 8) (16 17 13 12) (20 21 17 16) (24 25 21 20));
    }
);

mergePatchPairs
(
);


// ************************************************************************* //

