FoamFile
{
    version     2.0;
    format      ascii;
    class       dictionary;
    location    "system";
    object      blockMeshDict;
}

vertices
(
  (0.0 0.0 0.0)
  (4.0 0.0 0.0)
  (4.0 1.0 0.0)
  (0.0 1.0 0.0)
  (0.0 0.0 4.0)
  (4.0 0.0 4.0)
  (4.0 1.0 4.0)
  (0.0 1.0 4.0)
  (0.0 2.0 0.0)
  (4.0 2.0 0.0)
  (0.0 2.0 4.0)
  (4.0 2.0 4.0)
);

edges
(
);

blocks
(
  hex (0 1 2 3 4 5 6 7 ) (100 100 100)
  simpleGrading
  (
    1.0
    2.0
    1.0
  )
  hex (3 2 9 8 7 6 11 10 ) (100 100 100)
  simpleGrading
  (
    1.0
    0.5
    1.0
  )
);

boundary
(
  inlet
  {
    type patch;
    faces ((7 3 0 4) (10 8 3 7) );
  }
  outlet
  {
    type patch;
    faces ((1 2 6 5) (2 9 11 6) );
  }
  left
  {
    type patch;
    faces ((6 7 4 5) (11 10 7 6) );
  }
  right
  {
    type patch;
    faces ((3 2 1 0) (8 9 2 3) );
  }
  bottom
  {
    type wall;
    faces ((4 0 1 5) );
  }
  top
  {
    type wall;
    faces ((9 8 10 11) );
  }
);

